%chk=test.chk
%NProcShared=1
# Opt=NoMicro External="./ExtDFTD4.sh"

Title

0 1
 C                  0.00000000    1.20809735   -0.46313255
 C                  0.00000000    1.20809735   -1.85812321
 C                  0.00000000    0.00000000   -2.55561855
 C                  0.00000000   -1.20809735   -1.85812321
 C                  0.00000000   -1.20809735   -0.46313255
 C                  0.00000000    0.00000000    0.23436279
 H                  0.00000000    2.16038781    0.08667261
 H                  0.00000000    2.16038781   -2.40792837
 H                  0.00000000    0.00000000   -3.65522885
 H                  0.00000000   -2.16038781   -2.40792837
 H                  0.00000000   -2.16038781    0.08667261
 N                  0.00000000    0.00000000    1.70436279
 O                  0.00000000    1.17779455    2.38436279
 O                  0.00000000   -1.17779455    2.38436279

